Version 4
SHEET 1 880 680
WIRE 208 64 144 64
WIRE 384 64 288 64
WIRE 144 128 144 64
WIRE 384 128 384 64
WIRE 144 240 144 208
WIRE 256 240 144 240
WIRE 384 240 384 208
WIRE 384 240 256 240
FLAG 256 240 0
SYMBOL voltage 384 112 R0
WINDOW 123 0 0 Left 0
WINDOW 39 0 0 Left 0
SYMATTR InstName V1
SYMATTR Value EXP(0 11 0 0 0 0.5)
SYMBOL res 304 48 R90
WINDOW 0 0 56 VBottom 2
WINDOW 3 32 56 VTop 2
SYMATTR InstName R2
SYMATTR Value 4
SYMBOL ind 128 112 R0
SYMATTR InstName L1
SYMATTR Value 1
TEXT -40 152 Left 2 !.ic I(L1)=2
TEXT -42 246 Left 2 !.tran 4
