Version 4
SHEET 1 880 680
WIRE 160 112 -32 112
WIRE 256 112 160 112
WIRE -32 128 -32 112
WIRE 160 128 160 112
WIRE 256 128 256 112
WIRE -32 256 -32 208
WIRE 160 256 160 208
WIRE 160 256 -32 256
WIRE 208 256 160 256
WIRE 256 256 256 208
WIRE 256 256 208 256
FLAG 208 256 0
SYMBOL voltage -32 112 R0
WINDOW 123 0 0 Left 2
WINDOW 39 0 0 Left 2
SYMATTR InstName V1
SYMATTR Value SINE(0 325.2691 50)
SYMBOL res 144 112 R0
SYMATTR InstName R1
SYMATTR Value 881.667
SYMBOL res 240 112 R0
SYMATTR InstName R2
SYMATTR Value 1332.5
TEXT -88 304 Left 2 !.tran 0.1
