Version 4
SHEET 1 1040 680
WIRE 0 96 -32 96
WIRE 224 96 80 96
WIRE -32 112 -32 96
WIRE 224 112 224 96
WIRE -32 224 -32 192
WIRE 32 224 -32 224
WIRE 224 224 224 192
WIRE 224 224 32 224
FLAG 32 224 0
SYMBOL ind -16 112 R270
WINDOW 0 32 56 VTop 2
WINDOW 3 5 56 VBottom 2
SYMATTR InstName L1
SYMATTR Value 5µ
SYMBOL res 208 96 R0
SYMATTR InstName R1
SYMATTR Value 1.57
SYMBOL voltage -32 96 R0
WINDOW 123 24 124 Left 2
WINDOW 39 0 0 Left 2
SYMATTR InstName V2
SYMATTR Value ""
SYMATTR Value2 AC 1
TEXT -120 200 Left 2 !.ac oct 100 1000 100000
