Version 4
SHEET 1 880 680
WIRE 288 0 128 0
WIRE 128 48 128 0
WIRE 192 48 128 48
WIRE 48 80 0 80
WIRE 176 80 128 80
WIRE 192 80 176 80
WIRE 256 80 256 64
WIRE 288 80 288 0
WIRE 288 80 256 80
WIRE 304 80 288 80
WIRE 416 80 384 80
WIRE 256 96 256 80
WIRE 560 128 560 112
WIRE 640 128 560 128
WIRE 0 144 0 80
WIRE 176 144 176 80
WIRE 416 144 416 80
WIRE 560 160 560 128
FLAG 0 224 0
FLAG 176 208 0
FLAG 416 208 0
FLAG 224 32 +v
FLAG 560 32 +v
FLAG 224 96 -v
FLAG 560 240 -v
FLAG 640 128 0
SYMBOL voltage 0 128 R0
WINDOW 123 24 124 Left 2
WINDOW 39 0 0 Left 2
SYMATTR InstName V1
SYMATTR Value ""
SYMATTR Value2 AC 1
SYMBOL res 144 64 R90
WINDOW 0 0 56 VBottom 2
WINDOW 3 32 56 VTop 2
SYMATTR InstName R1
SYMATTR Value 1k
SYMBOL res 400 64 R90
WINDOW 0 0 56 VBottom 2
WINDOW 3 32 56 VTop 2
SYMATTR InstName R2
SYMATTR Value 1k
SYMBOL cap 160 144 R0
SYMATTR InstName C1
SYMATTR Value 0.1µ
SYMBOL cap 400 144 R0
SYMATTR InstName C2
SYMATTR Value 0.1µ
SYMBOL Opamps\\LT1022 224 0 R0
SYMATTR InstName U1
SYMBOL voltage 560 16 R0
SYMATTR InstName V2
SYMATTR Value 12
SYMBOL voltage 560 144 R0
SYMATTR InstName V3
SYMATTR Value 12
TEXT -34 312 Left 2 !.ac oct 100 100 100MEG
