Version 4
SHEET 1 880 680
WIRE 176 -48 160 -48
WIRE 160 32 160 -48
WIRE 176 32 160 32
WIRE 256 32 256 -48
WIRE 160 112 160 32
WIRE 176 112 160 112
WIRE 256 112 256 32
WIRE 256 112 240 112
WIRE 272 112 256 112
WIRE 32 176 -64 176
WIRE 160 176 160 112
WIRE 160 176 112 176
WIRE 176 176 160 176
WIRE 272 192 272 112
WIRE 272 192 240 192
WIRE 448 192 448 160
WIRE 608 192 448 192
WIRE 176 208 144 208
WIRE 448 208 448 192
WIRE -64 224 -64 176
WIRE 144 304 144 208
WIRE -64 336 -64 304
FLAG 208 160 +v
FLAG 448 80 +v
FLAG 208 224 -v
FLAG 448 288 -v
FLAG -64 336 0
FLAG 144 304 0
FLAG 608 192 0
SYMBOL voltage 448 64 R0
SYMATTR InstName V1
SYMATTR Value 12
SYMBOL voltage 448 192 R0
SYMATTR InstName V2
SYMATTR Value 12
SYMBOL voltage -64 208 R0
WINDOW 123 24 124 Left 2
WINDOW 39 0 0 Left 0
SYMATTR InstName V3
SYMATTR Value ""
SYMATTR Value2 AC 1
SYMBOL Opamps\\LT1022 208 128 R0
SYMATTR InstName U1
SYMBOL res 128 160 R90
WINDOW 0 0 56 VBottom 2
WINDOW 3 32 56 VTop 2
SYMATTR InstName R1
SYMATTR Value 10k
SYMBOL res 272 -64 R90
WINDOW 0 0 56 VBottom 2
WINDOW 3 32 56 VTop 2
SYMATTR InstName R2
SYMATTR Value 10k
SYMBOL ind 160 48 R270
WINDOW 0 32 56 VTop 2
WINDOW 3 5 56 VBottom 2
SYMATTR InstName L1
SYMATTR Value 100µ
SYMBOL cap 240 96 R90
WINDOW 0 0 32 VBottom 2
WINDOW 3 32 32 VTop 2
SYMATTR InstName C1
SYMATTR Value 1000p
TEXT -98 360 Left 2 !.ac oct 100 100k 1000k
