Version 4
SHEET 1 880 680
WIRE -32 80 -96 80
WIRE 112 80 48 80
WIRE 272 80 176 80
WIRE -96 112 -96 80
WIRE 272 128 272 80
WIRE -96 240 -96 192
WIRE 64 240 -96 240
WIRE 272 240 272 208
WIRE 272 240 64 240
FLAG 64 240 0
SYMBOL ind -48 96 R270
WINDOW 0 32 56 VTop 2
WINDOW 3 5 56 VBottom 2
SYMATTR InstName L1
SYMATTR Value 1m
SYMBOL res 256 112 R0
SYMATTR InstName R1
SYMATTR Value 125.49
SYMBOL voltage -96 96 R0
WINDOW 123 24 124 Left 2
WINDOW 39 0 0 Left 2
SYMATTR InstName V1
SYMATTR Value ""
SYMATTR Value2 AC 1
SYMBOL cap 176 64 R90
WINDOW 0 0 32 VBottom 2
WINDOW 3 32 32 VTop 2
SYMATTR InstName C1
SYMATTR Value 1n
TEXT -88 192 Left 2 !.ac oct 100 100 100000
