Version 4
SHEET 1 880 680
WIRE 80 48 16 48
WIRE 256 48 160 48
WIRE 400 48 336 48
WIRE 16 112 16 48
WIRE 400 112 400 48
WIRE 400 128 400 112
WIRE 16 208 16 192
WIRE 320 208 16 208
WIRE 400 208 400 176
WIRE 400 208 320 208
FLAG 320 208 0
SYMBOL voltage 16 96 R0
WINDOW 123 24 124 Left 2
WINDOW 39 0 0 Left 2
SYMATTR InstName V1
SYMATTR Value ""
SYMATTR Value2 AC 1
SYMBOL res 176 32 R90
WINDOW 0 0 56 VBottom 2
WINDOW 3 32 56 VTop 2
SYMATTR InstName R1
SYMATTR Value 14.144k
SYMBOL ind 240 64 R270
WINDOW 0 32 56 VTop 2
WINDOW 3 5 56 VBottom 2
SYMATTR InstName L1
SYMATTR Value 10
SYMBOL cap 384 112 R0
SYMATTR InstName C1
SYMATTR Value 0.1µ
TEXT -18 240 Left 2 !.ac oct 100 100 100MEG
