Version 4
SHEET 1 880 680
WIRE 112 48 96 48
WIRE 272 48 192 48
WIRE 16 160 -32 160
WIRE 96 160 96 48
WIRE 128 160 96 160
WIRE 272 176 272 48
WIRE 272 176 192 176
WIRE 400 176 272 176
WIRE 432 176 432 144
WIRE 512 176 432 176
WIRE 128 192 96 192
WIRE 432 208 432 176
WIRE 96 224 96 192
WIRE 96 224 64 224
WIRE -32 272 -32 160
WIRE 160 336 160 208
WIRE 432 336 432 288
WIRE 432 336 160 336
FLAG -32 272 0
FLAG 64 304 0
FLAG 160 144 +V
FLAG 432 64 +V
FLAG 512 176 0
SYMBOL Opamps\\LT1001 160 112 R0
SYMATTR InstName U1
SYMBOL res 112 144 R90
WINDOW 0 0 56 VBottom 2
WINDOW 3 32 56 VTop 2
SYMATTR InstName R1
SYMATTR Value 1k
SYMBOL res 208 32 R90
WINDOW 0 0 56 VBottom 2
WINDOW 3 32 56 VTop 2
SYMATTR InstName R2
SYMATTR Value 10k
SYMBOL voltage 64 208 R0
WINDOW 123 0 0 Left 2
WINDOW 39 0 0 Left 2
SYMATTR InstName V1
SYMATTR Value SINE(0 20m 100)
SYMBOL voltage 432 48 R0
SYMATTR InstName V2
SYMATTR Value 12
SYMBOL voltage 432 192 R0
SYMATTR InstName V3
SYMATTR Value 12
TEXT -52 342 Left 2 !.tran 0.1
