Version 4
SHEET 1 880 680
WIRE 16 48 -16 48
WIRE 112 48 96 48
WIRE 224 48 112 48
WIRE -16 128 -16 48
WIRE 624 144 592 144
WIRE 112 160 112 48
WIRE 128 160 112 160
WIRE 304 176 304 48
WIRE 304 176 192 176
WIRE 128 192 112 192
WIRE 624 192 624 144
WIRE 448 208 448 176
WIRE 592 208 592 144
WIRE 592 208 448 208
WIRE 160 240 160 208
WIRE 368 240 160 240
WIRE 448 240 448 208
WIRE -16 288 -16 208
WIRE 112 288 112 192
WIRE 112 288 -16 288
WIRE 304 288 112 288
WIRE 368 336 368 240
WIRE 448 336 448 320
WIRE 448 336 368 336
FLAG 112 288 0
FLAG 160 144 +v
FLAG 448 96 +v
FLAG 624 192 0
SYMBOL res 320 32 R90
WINDOW 0 0 56 VBottom 2
WINDOW 3 32 56 VTop 2
SYMATTR InstName R1
SYMATTR Value 10k
SYMBOL res 112 32 R90
WINDOW 0 0 56 VBottom 2
WINDOW 3 32 56 VTop 2
SYMATTR InstName R2
SYMATTR Value 1k
SYMBOL Opamps\\LT1001 160 112 R0
SYMATTR InstName U1
SYMBOL voltage -16 112 R0
WINDOW 123 0 0 Left 2
WINDOW 39 0 0 Left 2
SYMATTR InstName V1
SYMATTR Value SINE(0 2000m 100)
SYMBOL voltage 448 80 R0
WINDOW 123 0 0 Left 2
WINDOW 39 0 0 Left 2
SYMATTR InstName V2
SYMATTR Value 12
SYMBOL voltage 448 224 R0
SYMATTR InstName V3
SYMATTR Value 12
TEXT -50 342 Left 2 !.tran 0.1
